*KEYWORD
*CONTROL_TERMINATION
$$  ENDTIM    ENDCYC     DTMIN    ENDENG    ENDMAS     NOSOL
     0.100         0       0.0       0.01.000000E8
*CONTROL_TIMESTEP
$$  DTINIT    TSSFAC      ISDO    TSLIMT     DT2MS      LCTM     ERODE     MSIST
       0.0       0.8         0       0.0       0.0         0         0         0
$#  dt2msf   dt2mslc     imscl    unused    unused     rmscl     
       0.0         0         0                           0.0
*DATABASE_GLSTAT_MASS_PROPERTIES
$$      DT    BINARY      LCUR      IOPsT      DTHF     BINHF
5.00000E-4         1         0         1
$$DATABASE_OPTION -- Control Cards for ASCII output
*DATABASE_HISTORY_NODE_SET
$#     id1       id2       id3       id4       id5       id6       id7       id8
         9         0         0         0         0         0         0         0
*DATABASE_NODOUT
$$      DT    BINARY      LCUR      IOPT      DTHF     BINHF
5.00000E-4         2         0         1       0.0         0
*DATABASE_BINARY_D3PLOT
$$ DT/CYCL      LCDT      BEAM     NPLTC    PSETID
5.00000E-4         0         0         0         0
$#   ioopt     
         0
*DATABASE_BINARY_D3THDT
$$ DT/CYCL      LCID
5.00000E-4         0         0         0         0
*NODE
       1            160.           -200.            120.       0       0
       2            160.           -200.            240.       0       0
       3            160.           1150.            240.       0       0
       4            160.           1150.            120.       0       0
       5            190.           -200.            120.       0       0
       6            190.           1150.            120.       0       0
       7            190.           1150.            240.       0       0
       8            190.           -200.            240.       0       0
       9            160.        812.6411            120.       0       0
      10            190.       812.65283            120.       0       0
      11        424.5858        63.33189       185.45335       0       0
      12       424.57687        63.45732        174.5442       0       0
      13            160.         263.938            240.       0       0
      14            160.       263.95163            120.       0       0
      15            190.        253.3821            240.       0       0
      16            190.       253.39908            120.       0       0
      17            190.       369.47845            240.       0       0
      18            190.       358.92786            120.       0       0
      19            160.        369.4786            240.       0       0
      20            160.        369.4811            120.       0       0
$ ... 22527 like lines cut
*CONSTRAINED_NODAL_RIGID_BODY
      2672            59010061                   0         0         0
*ELEMENT_INERTIA
58148903    2294        
     1.E+1        0.        0.     1.E+1        0.     1.E+6        0.
*ELEMENT_MASS
58148901    2294             0.5
*ELEMENT_SHELL
       116100302   21563   14890      11   14891
       216100000   16925    2295       4    2296
       316100302   21567   14894      11   14895
       416100000   16928    2300      67    2301
       516100000   16933    2308       9    2309
       616100302   21568   14896      12   14898
       716100000   16938    2317    4442    2318
       816100000   16943    2322    4684    2324
       916100302   21574   14901     170   14902
      1016100000   16948    2327    5664    2328
      1116100000   16953    2340    1214    2345
      1216100000   16958    2350     359    2351
      1316100000   16963    2358      98    2359
      1416100000   16968    2366    5543    2367
      1516100000   16973    2391    1181    2404
      1616100302   21576   14903      27   14905
      1716100302   21582   14908     114   14909
      1816100302   21584   14912     170   14913
      1916100000   16978    2410     108    2411
      2016100302   21585   14914      36   14916
$ ... 22476 like lines cut
*MAT_PIECEWISE_LINEAR_PLASTICITY
$...>....1....>....2....>....3....>....4....>....5....>....6....>....7....>....8
$      MID        RO         E        PR      SIGY      ETAN      EPPF      TDEL
         1 7.830E-09     2.0E5       0.3       366       0.1     0.750
$...>....1....>....2....>....3....>....4....>....5....>....6....>....7....>....8
$        C         P      LCSS      LCSR
        40         5
$ VALUES FOR PLASTIC STRESS/STRAIN CURVES
     0.000     0.025     0.049     0.072     0.095     0.118     0.140     0.182
       366       424       476       507       529       546       559       584
$
$
*PART
STF
  16100000  16100000         1                             0         0          
*SECTION_SHELL_TITLE
STF
  16100000        16        1.        5.        0.         0         0
       2.2       2.2       2.2       2.2                            0.          
*PART
DEFO_RE
  16100301  16100301         1                             0         0          
*SECTION_SHELL_TITLE
DEFO_RE
  16100301        16        1.        5.        0.         0         0
       1.5       1.5       1.5       1.5                            0.          
*PART
DEFO_LI
  16100302  16100302         1                             0         0          
*SECTION_SHELL_TITLE
DEFO_LI
  16100302        16        1.        5.        0.         0         0
       1.5       1.5       1.5       1.5                            0.          
*INITIAL_VELOCITY
         2         0         0         0         0
 -5555.556        0.        0.        0.        0.        0.
*SET_NODE_LIST_TITLE
NSET_INITIAL_VEL
         2                                        
         1         2         3         4         5         6         7         8
         9        10        11        12        13        14        15        16
        17        18        19        20        21        22        23        24
        25        26        27        28        29        30        31        32
        33        34        35        36        37        38        39        40
        41        42        43        44        45        46        47        48
        49        50        51        52        53        54        55        56
        57        58        59        60        61        62        63        64
        65        66        67        68        69        70        71        72
        73        74        75        76        77        78        79        80
        81        82        83        84        85        86        87        88
        89        90        91        92        93        94        95        96
        97        98        99       100       101       102       103       104
       105       106       107       108       109       110       111       112
       113       114       115       116       117       118       119       120
       121       122       123       124       125       126       127       128
       129       130       131       132       133       134       135       136
       137       138       139       140       141       142       143       144
       145       146       147       148       149       150       151       152
$ ... 2800 like lines cut
*SET_SHELL_ADD_TITLE
T-ALL-G11000104@_1
  11000104                                        
  59010129
*SET_PART_LIST_TITLE
DEFOBOX_LH
  58148905                                        
  16100302
*SET_PART_LIST_TITLE
DEFOBOX_RH
  58148906                                        
  16100301
*SET_PART_LIST_TITLE
STF
  58148907                                        
  16100000
*SET_NODE_LIST_TITLE
MPC_NSET
  59010061                                        
      2294       380       483       484       486       491       494       497
       538       540       545       564       566       568       569       586
       587       588       594       596       599       600       602       603
       604       634       635       661       662       665       670       671
       681       683       685       688       690       692       795       796
       798       806       807       808       828       829       831       870
       875       878       898       903       906       924       927       928
       930       931       934       970       973      1102      1103      1104
      1105      1106      1108      1113      1115      1118      1137      1138
      1139      1140      1157      1162      1191      1192      1193      1194
      1206      1212      1216      1217      1219      1222      1236      1237
      1240      1241      1256      1258      1265      1267      1271      1275
      1276      1283      1285      1286      1292      1294      1296      1297
      1300      1301      1450      1643      1644      1645      1655      1656
      1657      1676      1684      1686      1690      1691      1692      1693
      1708      1716      1717      1734      1736      1739      1758      1775
      1776      1777      1778      1779      1780      1781      1782      1783
      1791      1792      1794      1798      1799      1800      1884      1885
      1887      1907      1908      1910      1924      1927      1928      1934
$ ... 100 like lines cut
*SET_SHELL_GENERAL_TITLE
T-ALL-G11000104
  59010129                                        
PART        16100000  16100301  16100302
*INCLUDE
OKL_KOM_Barriere_Front.key
*SET_NODE_LIST_GENERATE
$#     sid       da1       da2       da3       da4    solver      
         9       0.0       0.0       0.0       0.0          
$#   b1beg     b1end     b2beg     b2end     b3beg     b3end     b4beg     b4end
         1  99999999         0         0         0         0         0         0
*SET_SHELL_GENERAL_TITLE
SURF-all_ohne_EI_EP_Barriere
    590010                                        
PART        16100000  16100301  16100302
*CONTACT_AUTOMATIC_SINGLE_SURFACE
$     SSID      MSID     SSTYP     MSTYP
         0
$       FS        FD
      0.08      0.08

$                                               
*SET_SHELL_GENERAL_TITLE
SET_PART_ALL generated during input
         1                                        
PART        16100000  16100301  16100302
*END
